** sch_path: /home/tnt/projects/asic/tinytapeout/mosbius/xschem/mosbius.sch
.subckt mosbius cfg_bus_pwr[6] cfg_bus_pwr[5] cfg_bus_pwr[4] cfg_bus_pwr[3] cfg_bus_pwr[2] cfg_bus_pwr[1] VAPWR VDPWR VGND
+ bus_A[6] bus_A[5] bus_A[4] bus_A[3] bus_A[2] bus_A[1] cfga_otan_inp[3] cfga_otan_inp[2] cfga_otan_inp[1] cfgb_otan_inm[3] cfgb_otan_inm[2]
+ cfgb_otan_inm[1] cfga_otan_outp[6] cfga_otan_outp[5] cfga_otan_outp[4] cfga_otan_outp[3] cfga_otan_outp[2] cfga_otan_outp[1] cfga_mirn_a[6]
+ cfga_mirn_a[5] cfga_mirn_a[4] cfga_mirn_a[3] cfga_mirn_a[2] cfga_mirn_a[1] cfgb_mirn_b[6] cfgb_mirn_b[5] cfgb_mirn_b[4] cfgb_mirn_b[3]
+ cfgb_mirn_b[2] cfgb_mirn_b[1] ctrl_otan_tail[1] ctrl_otan_tail[0] ctrl_otan_mode[1] ctrl_otan_mode[0] cfga_mirp_a[6] cfga_mirp_a[5]
+ cfga_mirp_a[4] cfga_mirp_a[3] cfga_mirp_a[2] cfga_mirp_a[1] cfgb_mirp_b[6] cfgb_mirp_b[5] cfgb_mirp_b[4] cfgb_mirp_b[3] cfgb_mirp_b[2]
+ cfgb_mirp_b[1] cfga_dpn_inp[3] cfga_dpn_inp[2] cfga_dpn_inp[1] cfgb_dpn_inm[3] cfgb_dpn_inm[2] cfgb_dpn_inm[1] cfga_dpn_outp[6] cfga_dpn_outp[5]
+ cfga_dpn_outp[4] cfga_dpn_outp[3] cfga_dpn_outp[2] cfga_dpn_outp[1] ibias cfgb_dpn_outm[6] cfgb_dpn_outm[5] cfgb_dpn_outm[4] cfgb_dpn_outm[3]
+ cfgb_dpn_outm[2] cfgb_dpn_outm[1] ctrl_mirp_a[1] ctrl_mirp_a[0] ctrl_mirn_a[1] ctrl_mirn_a[0] ctrl_mirp_b[1] ctrl_mirp_b[0] ctrl_mirn_b[1]
+ ctrl_mirn_b[0] cfga_dpp_inp[3] cfga_dpp_inp[2] cfga_dpp_inp[1] cfgb_dpp_inm[3] cfgb_dpp_inm[2] cfgb_dpp_inm[1] cfga_dpp_outp[6] cfga_dpp_outp[5]
+ cfga_dpp_outp[4] cfga_dpp_outp[3] cfga_dpp_outp[2] cfga_dpp_outp[1] cfgb_dpp_outm[6] cfgb_dpp_outm[5] cfgb_dpp_outm[4] cfgb_dpp_outm[3]
+ cfgb_dpp_outm[2] cfgb_dpp_outm[1] cfga_nfeta_d[6] cfga_nfeta_d[5] cfga_nfeta_d[4] cfga_nfeta_d[3] cfga_nfeta_d[2] cfga_nfeta_d[1] cfgb_nfetb_d[6]
+ cfgb_nfetb_d[5] cfgb_nfetb_d[4] cfgb_nfetb_d[3] cfgb_nfetb_d[2] cfgb_nfetb_d[1] cfga_nfeta_g[6] cfga_nfeta_g[5] cfga_nfeta_g[4] cfga_nfeta_g[3]
+ cfga_nfeta_g[2] cfga_nfeta_g[1] ctrl_dpp_tail[1] ctrl_dpp_tail[0] ctrl_dpn_tail[1] ctrl_dpn_tail[0] cfgb_nfetb_g[6] cfgb_nfetb_g[5]
+ cfgb_nfetb_g[4] cfgb_nfetb_g[3] cfgb_nfetb_g[2] cfgb_nfetb_g[1] ctrl_dpp_source ctrl_dpn_source cfga_nfeta_s[6] cfga_nfeta_s[5] cfga_nfeta_s[4]
+ cfga_nfeta_s[3] cfga_nfeta_s[2] cfga_nfeta_s[1] cfgb_nfetb_s[6] cfgb_nfetb_s[5] cfgb_nfetb_s[4] cfgb_nfetb_s[3] cfgb_nfetb_s[2] cfgb_nfetb_s[1]
+ cfga_pfeta_d[6] cfga_pfeta_d[5] cfga_pfeta_d[4] cfga_pfeta_d[3] cfga_pfeta_d[2] cfga_pfeta_d[1] cfgb_pfetb_d[6] cfgb_pfetb_d[5] cfgb_pfetb_d[4]
+ cfgb_pfetb_d[3] cfgb_pfetb_d[2] cfgb_pfetb_d[1] cfga_pfeta_g[6] cfga_pfeta_g[5] cfga_pfeta_g[4] cfga_pfeta_g[3] cfga_pfeta_g[2] cfga_pfeta_g[1]
+ ctrl_pfeta_source ctrl_nfeta_source cfgb_pfetb_g[6] cfgb_pfetb_g[5] cfgb_pfetb_g[4] cfgb_pfetb_g[3] cfgb_pfetb_g[2] cfgb_pfetb_g[1]
+ ctrl_pfeta_width[1] ctrl_pfeta_width[0] ctrl_nfeta_width[1] ctrl_nfeta_width[0] cfga_pfeta_s[6] cfga_pfeta_s[5] cfga_pfeta_s[4] cfga_pfeta_s[3]
+ cfga_pfeta_s[2] cfga_pfeta_s[1] cfgb_pfetb_s[6] cfgb_pfetb_s[5] cfgb_pfetb_s[4] cfgb_pfetb_s[3] cfgb_pfetb_s[2] cfgb_pfetb_s[1] ctrl_pfetb_source
+ ctrl_nfetb_source ctrl_pfetb_width[1] ctrl_pfetb_width[0] ctrl_nfetb_width[1] ctrl_nfetb_width[0] cfg_bus_short[6] cfg_bus_short[5]
+ cfg_bus_short[4] cfg_bus_short[3] cfg_bus_short[2] cfg_bus_short[1] cfgb_otan_outm[6] cfgb_otan_outm[5] cfgb_otan_outm[4] cfgb_otan_outm[3]
+ cfgb_otan_outm[2] cfgb_otan_outm[1] bus_B[6] bus_B[5] bus_B[4] bus_B[3] bus_B[2] bus_B[1]
*.PININFO cfga_otan_inp[3:1]:I cfga_otan_outp[6:1]:I cfga_mirn_a[6:1]:I cfga_mirp_a[6:1]:I cfga_dpn_inp[3:1]:I
*+ cfga_dpn_outp[6:1]:I cfga_dpp_inp[3:1]:I cfga_dpp_outp[6:1]:I cfga_nfeta_d[6:1]:I cfga_nfeta_g[6:1]:I cfga_nfeta_s[6:1]:I cfga_pfeta_d[6:1]:I
*+ cfga_pfeta_g[6:1]:I cfga_pfeta_s[6:1]:I cfgb_otan_inm[3:1]:I cfgb_mirn_b[6:1]:I cfgb_mirp_b[6:1]:I cfgb_dpn_inm[3:1]:I cfgb_dpn_outm[6:1]:I
*+ cfgb_dpp_inm[3:1]:I cfgb_dpp_outm[6:1]:I cfgb_nfetb_d[6:1]:I cfgb_nfetb_g[6:1]:I cfgb_nfetb_s[6:1]:I cfgb_pfetb_d[6:1]:I cfgb_pfetb_g[6:1]:I
*+ cfgb_pfetb_s[6:1]:I ibias:I cfg_bus_short[6:1]:I ctrl_otan_tail[1:0]:I ctrl_otan_mode[1:0]:I ctrl_mirn_a[1:0]:I ctrl_mirn_b[1:0]:I ctrl_mirp_a[1:0]:I
*+ ctrl_mirp_b[1:0]:I ctrl_dpn_tail[1:0]:I ctrl_dpn_source:I ctrl_dpp_tail[1:0]:I ctrl_dpp_source:I ctrl_nfeta_width[1:0]:I ctrl_nfeta_source:I
*+ ctrl_nfetb_width[1:0]:I ctrl_nfetb_source:I ctrl_pfeta_width[1:0]:I ctrl_pfeta_source:I ctrl_pfetb_width[1:0]:I ctrl_pfetb_source:I VAPWR:B VDPWR:B
*+ VGND:B bus_A[6:1]:B cfgb_otan_outm[6:1]:I cfg_bus_pwr[6:1]:I bus_B[6:1]:B
x2 VAPWR VDPWR ibias ibias_p xpt_mirn_a xpt_mirn_b ctrl_mirn_a[1] ctrl_mirn_a[0] ctrl_mirn_b[1] ctrl_mirn_b[0] VGND mirror_n
x12[3] VGND VDPWR VAPWR cfga_otan_inp[3] xpt_otan_inp bus_A[3] tt_asw_3v3
x12[2] VGND VDPWR VAPWR cfga_otan_inp[2] xpt_otan_inp bus_A[2] tt_asw_3v3
x12[1] VGND VDPWR VAPWR cfga_otan_inp[1] xpt_otan_inp bus_A[1] tt_asw_3v3
x13[6] VGND VDPWR VAPWR cfga_otan_outp[6] xpt_otan_outp bus_A[6] tt_asw_3v3
x13[5] VGND VDPWR VAPWR cfga_otan_outp[5] xpt_otan_outp bus_A[5] tt_asw_3v3
x13[4] VGND VDPWR VAPWR cfga_otan_outp[4] xpt_otan_outp bus_A[4] tt_asw_3v3
x13[3] VGND VDPWR VAPWR cfga_otan_outp[3] xpt_otan_outp bus_A[3] tt_asw_3v3
x13[2] VGND VDPWR VAPWR cfga_otan_outp[2] xpt_otan_outp bus_A[2] tt_asw_3v3
x13[1] VGND VDPWR VAPWR cfga_otan_outp[1] xpt_otan_outp bus_A[1] tt_asw_3v3
x14[6] VGND VDPWR VAPWR cfga_mirn_a[6] xpt_mirn_a bus_A[6] tt_asw_3v3
x14[5] VGND VDPWR VAPWR cfga_mirn_a[5] xpt_mirn_a bus_A[5] tt_asw_3v3
x14[4] VGND VDPWR VAPWR cfga_mirn_a[4] xpt_mirn_a bus_A[4] tt_asw_3v3
x14[3] VGND VDPWR VAPWR cfga_mirn_a[3] xpt_mirn_a bus_A[3] tt_asw_3v3
x14[2] VGND VDPWR VAPWR cfga_mirn_a[2] xpt_mirn_a bus_A[2] tt_asw_3v3
x14[1] VGND VDPWR VAPWR cfga_mirn_a[1] xpt_mirn_a bus_A[1] tt_asw_3v3
x15[6] VGND VDPWR VAPWR cfga_mirp_a[6] xpt_mirp_a bus_A[6] tt_asw_3v3
x15[5] VGND VDPWR VAPWR cfga_mirp_a[5] xpt_mirp_a bus_A[5] tt_asw_3v3
x15[4] VGND VDPWR VAPWR cfga_mirp_a[4] xpt_mirp_a bus_A[4] tt_asw_3v3
x15[3] VGND VDPWR VAPWR cfga_mirp_a[3] xpt_mirp_a bus_A[3] tt_asw_3v3
x15[2] VGND VDPWR VAPWR cfga_mirp_a[2] xpt_mirp_a bus_A[2] tt_asw_3v3
x15[1] VGND VDPWR VAPWR cfga_mirp_a[1] xpt_mirp_a bus_A[1] tt_asw_3v3
x16[3] VGND VDPWR VAPWR cfga_dpn_inp[3] xpt_dpn_inp bus_A[3] tt_asw_3v3
x16[2] VGND VDPWR VAPWR cfga_dpn_inp[2] xpt_dpn_inp bus_A[2] tt_asw_3v3
x16[1] VGND VDPWR VAPWR cfga_dpn_inp[1] xpt_dpn_inp bus_A[1] tt_asw_3v3
x17[6] VGND VDPWR VAPWR cfga_dpn_outp[6] xpt_dpn_outp bus_A[6] tt_asw_3v3
x17[5] VGND VDPWR VAPWR cfga_dpn_outp[5] xpt_dpn_outp bus_A[5] tt_asw_3v3
x17[4] VGND VDPWR VAPWR cfga_dpn_outp[4] xpt_dpn_outp bus_A[4] tt_asw_3v3
x17[3] VGND VDPWR VAPWR cfga_dpn_outp[3] xpt_dpn_outp bus_A[3] tt_asw_3v3
x17[2] VGND VDPWR VAPWR cfga_dpn_outp[2] xpt_dpn_outp bus_A[2] tt_asw_3v3
x17[1] VGND VDPWR VAPWR cfga_dpn_outp[1] xpt_dpn_outp bus_A[1] tt_asw_3v3
x18[3] VGND VDPWR VAPWR cfga_dpp_inp[3] xpt_dpp_inp bus_A[3] tt_asw_3v3
x18[2] VGND VDPWR VAPWR cfga_dpp_inp[2] xpt_dpp_inp bus_A[2] tt_asw_3v3
x18[1] VGND VDPWR VAPWR cfga_dpp_inp[1] xpt_dpp_inp bus_A[1] tt_asw_3v3
x19[6] VGND VDPWR VAPWR cfga_dpp_outp[6] xpt_dpp_outp bus_A[6] tt_asw_3v3
x19[5] VGND VDPWR VAPWR cfga_dpp_outp[5] xpt_dpp_outp bus_A[5] tt_asw_3v3
x19[4] VGND VDPWR VAPWR cfga_dpp_outp[4] xpt_dpp_outp bus_A[4] tt_asw_3v3
x19[3] VGND VDPWR VAPWR cfga_dpp_outp[3] xpt_dpp_outp bus_A[3] tt_asw_3v3
x19[2] VGND VDPWR VAPWR cfga_dpp_outp[2] xpt_dpp_outp bus_A[2] tt_asw_3v3
x19[1] VGND VDPWR VAPWR cfga_dpp_outp[1] xpt_dpp_outp bus_A[1] tt_asw_3v3
x20[6] VGND VDPWR VAPWR cfga_nfeta_d[6] xpt_nfeta_d bus_A[6] tt_asw_3v3
x20[5] VGND VDPWR VAPWR cfga_nfeta_d[5] xpt_nfeta_d bus_A[5] tt_asw_3v3
x20[4] VGND VDPWR VAPWR cfga_nfeta_d[4] xpt_nfeta_d bus_A[4] tt_asw_3v3
x20[3] VGND VDPWR VAPWR cfga_nfeta_d[3] xpt_nfeta_d bus_A[3] tt_asw_3v3
x20[2] VGND VDPWR VAPWR cfga_nfeta_d[2] xpt_nfeta_d bus_A[2] tt_asw_3v3
x20[1] VGND VDPWR VAPWR cfga_nfeta_d[1] xpt_nfeta_d bus_A[1] tt_asw_3v3
x21[6] VGND VDPWR VAPWR cfga_nfeta_g[6] xpt_nfeta_g bus_A[6] tt_asw_3v3
x21[5] VGND VDPWR VAPWR cfga_nfeta_g[5] xpt_nfeta_g bus_A[5] tt_asw_3v3
x21[4] VGND VDPWR VAPWR cfga_nfeta_g[4] xpt_nfeta_g bus_A[4] tt_asw_3v3
x21[3] VGND VDPWR VAPWR cfga_nfeta_g[3] xpt_nfeta_g bus_A[3] tt_asw_3v3
x21[2] VGND VDPWR VAPWR cfga_nfeta_g[2] xpt_nfeta_g bus_A[2] tt_asw_3v3
x21[1] VGND VDPWR VAPWR cfga_nfeta_g[1] xpt_nfeta_g bus_A[1] tt_asw_3v3
x22[6] VGND VDPWR VAPWR cfga_nfeta_s[6] xpt_nfeta_s bus_A[6] tt_asw_3v3
x22[5] VGND VDPWR VAPWR cfga_nfeta_s[5] xpt_nfeta_s bus_A[5] tt_asw_3v3
x22[4] VGND VDPWR VAPWR cfga_nfeta_s[4] xpt_nfeta_s bus_A[4] tt_asw_3v3
x22[3] VGND VDPWR VAPWR cfga_nfeta_s[3] xpt_nfeta_s bus_A[3] tt_asw_3v3
x22[2] VGND VDPWR VAPWR cfga_nfeta_s[2] xpt_nfeta_s bus_A[2] tt_asw_3v3
x22[1] VGND VDPWR VAPWR cfga_nfeta_s[1] xpt_nfeta_s bus_A[1] tt_asw_3v3
x23[6] VGND VDPWR VAPWR cfga_pfeta_d[6] xpt_pfeta_d bus_A[6] tt_asw_3v3
x23[5] VGND VDPWR VAPWR cfga_pfeta_d[5] xpt_pfeta_d bus_A[5] tt_asw_3v3
x23[4] VGND VDPWR VAPWR cfga_pfeta_d[4] xpt_pfeta_d bus_A[4] tt_asw_3v3
x23[3] VGND VDPWR VAPWR cfga_pfeta_d[3] xpt_pfeta_d bus_A[3] tt_asw_3v3
x23[2] VGND VDPWR VAPWR cfga_pfeta_d[2] xpt_pfeta_d bus_A[2] tt_asw_3v3
x23[1] VGND VDPWR VAPWR cfga_pfeta_d[1] xpt_pfeta_d bus_A[1] tt_asw_3v3
x24[6] VGND VDPWR VAPWR cfga_pfeta_g[6] xpt_pfeta_g bus_A[6] tt_asw_3v3
x24[5] VGND VDPWR VAPWR cfga_pfeta_g[5] xpt_pfeta_g bus_A[5] tt_asw_3v3
x24[4] VGND VDPWR VAPWR cfga_pfeta_g[4] xpt_pfeta_g bus_A[4] tt_asw_3v3
x24[3] VGND VDPWR VAPWR cfga_pfeta_g[3] xpt_pfeta_g bus_A[3] tt_asw_3v3
x24[2] VGND VDPWR VAPWR cfga_pfeta_g[2] xpt_pfeta_g bus_A[2] tt_asw_3v3
x24[1] VGND VDPWR VAPWR cfga_pfeta_g[1] xpt_pfeta_g bus_A[1] tt_asw_3v3
x25[6] VGND VDPWR VAPWR cfga_pfeta_s[6] xpt_pfeta_s bus_A[6] tt_asw_3v3
x25[5] VGND VDPWR VAPWR cfga_pfeta_s[5] xpt_pfeta_s bus_A[5] tt_asw_3v3
x25[4] VGND VDPWR VAPWR cfga_pfeta_s[4] xpt_pfeta_s bus_A[4] tt_asw_3v3
x25[3] VGND VDPWR VAPWR cfga_pfeta_s[3] xpt_pfeta_s bus_A[3] tt_asw_3v3
x25[2] VGND VDPWR VAPWR cfga_pfeta_s[2] xpt_pfeta_s bus_A[2] tt_asw_3v3
x25[1] VGND VDPWR VAPWR cfga_pfeta_s[1] xpt_pfeta_s bus_A[1] tt_asw_3v3
x28[3] VGND VDPWR VAPWR cfgb_otan_inm[3] xpt_otan_inm bus_B[3] tt_asw_3v3
x28[2] VGND VDPWR VAPWR cfgb_otan_inm[2] xpt_otan_inm bus_B[2] tt_asw_3v3
x28[1] VGND VDPWR VAPWR cfgb_otan_inm[1] xpt_otan_inm bus_B[1] tt_asw_3v3
x30[6] VGND VDPWR VAPWR cfgb_mirn_b[6] xpt_mirn_b bus_B[6] tt_asw_3v3
x30[5] VGND VDPWR VAPWR cfgb_mirn_b[5] xpt_mirn_b bus_B[5] tt_asw_3v3
x30[4] VGND VDPWR VAPWR cfgb_mirn_b[4] xpt_mirn_b bus_B[4] tt_asw_3v3
x30[3] VGND VDPWR VAPWR cfgb_mirn_b[3] xpt_mirn_b bus_B[3] tt_asw_3v3
x30[2] VGND VDPWR VAPWR cfgb_mirn_b[2] xpt_mirn_b bus_B[2] tt_asw_3v3
x30[1] VGND VDPWR VAPWR cfgb_mirn_b[1] xpt_mirn_b bus_B[1] tt_asw_3v3
x31[6] VGND VDPWR VAPWR cfgb_mirp_b[6] xpt_mirp_b bus_B[6] tt_asw_3v3
x31[5] VGND VDPWR VAPWR cfgb_mirp_b[5] xpt_mirp_b bus_B[5] tt_asw_3v3
x31[4] VGND VDPWR VAPWR cfgb_mirp_b[4] xpt_mirp_b bus_B[4] tt_asw_3v3
x31[3] VGND VDPWR VAPWR cfgb_mirp_b[3] xpt_mirp_b bus_B[3] tt_asw_3v3
x31[2] VGND VDPWR VAPWR cfgb_mirp_b[2] xpt_mirp_b bus_B[2] tt_asw_3v3
x31[1] VGND VDPWR VAPWR cfgb_mirp_b[1] xpt_mirp_b bus_B[1] tt_asw_3v3
x32[3] VGND VDPWR VAPWR cfgb_dpn_inm[3] xpt_dpn_inm bus_B[3] tt_asw_3v3
x32[2] VGND VDPWR VAPWR cfgb_dpn_inm[2] xpt_dpn_inm bus_B[2] tt_asw_3v3
x32[1] VGND VDPWR VAPWR cfgb_dpn_inm[1] xpt_dpn_inm bus_B[1] tt_asw_3v3
x33[6] VGND VDPWR VAPWR cfgb_dpn_outm[6] xpt_dpn_outm bus_B[6] tt_asw_3v3
x33[5] VGND VDPWR VAPWR cfgb_dpn_outm[5] xpt_dpn_outm bus_B[5] tt_asw_3v3
x33[4] VGND VDPWR VAPWR cfgb_dpn_outm[4] xpt_dpn_outm bus_B[4] tt_asw_3v3
x33[3] VGND VDPWR VAPWR cfgb_dpn_outm[3] xpt_dpn_outm bus_B[3] tt_asw_3v3
x33[2] VGND VDPWR VAPWR cfgb_dpn_outm[2] xpt_dpn_outm bus_B[2] tt_asw_3v3
x33[1] VGND VDPWR VAPWR cfgb_dpn_outm[1] xpt_dpn_outm bus_B[1] tt_asw_3v3
x34[3] VGND VDPWR VAPWR cfgb_dpp_inm[3] xpt_dpp_inm bus_B[3] tt_asw_3v3
x34[2] VGND VDPWR VAPWR cfgb_dpp_inm[2] xpt_dpp_inm bus_B[2] tt_asw_3v3
x34[1] VGND VDPWR VAPWR cfgb_dpp_inm[1] xpt_dpp_inm bus_B[1] tt_asw_3v3
x35[6] VGND VDPWR VAPWR cfgb_dpp_outm[6] xpt_dpp_outm bus_B[6] tt_asw_3v3
x35[5] VGND VDPWR VAPWR cfgb_dpp_outm[5] xpt_dpp_outm bus_B[5] tt_asw_3v3
x35[4] VGND VDPWR VAPWR cfgb_dpp_outm[4] xpt_dpp_outm bus_B[4] tt_asw_3v3
x35[3] VGND VDPWR VAPWR cfgb_dpp_outm[3] xpt_dpp_outm bus_B[3] tt_asw_3v3
x35[2] VGND VDPWR VAPWR cfgb_dpp_outm[2] xpt_dpp_outm bus_B[2] tt_asw_3v3
x35[1] VGND VDPWR VAPWR cfgb_dpp_outm[1] xpt_dpp_outm bus_B[1] tt_asw_3v3
x36[6] VGND VDPWR VAPWR cfgb_nfetb_d[6] xpt_nfetb_d bus_B[6] tt_asw_3v3
x36[5] VGND VDPWR VAPWR cfgb_nfetb_d[5] xpt_nfetb_d bus_B[5] tt_asw_3v3
x36[4] VGND VDPWR VAPWR cfgb_nfetb_d[4] xpt_nfetb_d bus_B[4] tt_asw_3v3
x36[3] VGND VDPWR VAPWR cfgb_nfetb_d[3] xpt_nfetb_d bus_B[3] tt_asw_3v3
x36[2] VGND VDPWR VAPWR cfgb_nfetb_d[2] xpt_nfetb_d bus_B[2] tt_asw_3v3
x36[1] VGND VDPWR VAPWR cfgb_nfetb_d[1] xpt_nfetb_d bus_B[1] tt_asw_3v3
x37[6] VGND VDPWR VAPWR cfgb_nfetb_g[6] xpt_nfetb_g bus_B[6] tt_asw_3v3
x37[5] VGND VDPWR VAPWR cfgb_nfetb_g[5] xpt_nfetb_g bus_B[5] tt_asw_3v3
x37[4] VGND VDPWR VAPWR cfgb_nfetb_g[4] xpt_nfetb_g bus_B[4] tt_asw_3v3
x37[3] VGND VDPWR VAPWR cfgb_nfetb_g[3] xpt_nfetb_g bus_B[3] tt_asw_3v3
x37[2] VGND VDPWR VAPWR cfgb_nfetb_g[2] xpt_nfetb_g bus_B[2] tt_asw_3v3
x37[1] VGND VDPWR VAPWR cfgb_nfetb_g[1] xpt_nfetb_g bus_B[1] tt_asw_3v3
x38[6] VGND VDPWR VAPWR cfgb_nfetb_s[6] xpt_nfetb_s bus_B[6] tt_asw_3v3
x38[5] VGND VDPWR VAPWR cfgb_nfetb_s[5] xpt_nfetb_s bus_B[5] tt_asw_3v3
x38[4] VGND VDPWR VAPWR cfgb_nfetb_s[4] xpt_nfetb_s bus_B[4] tt_asw_3v3
x38[3] VGND VDPWR VAPWR cfgb_nfetb_s[3] xpt_nfetb_s bus_B[3] tt_asw_3v3
x38[2] VGND VDPWR VAPWR cfgb_nfetb_s[2] xpt_nfetb_s bus_B[2] tt_asw_3v3
x38[1] VGND VDPWR VAPWR cfgb_nfetb_s[1] xpt_nfetb_s bus_B[1] tt_asw_3v3
x39[6] VGND VDPWR VAPWR cfgb_pfetb_d[6] xpt_pfetb_d bus_B[6] tt_asw_3v3
x39[5] VGND VDPWR VAPWR cfgb_pfetb_d[5] xpt_pfetb_d bus_B[5] tt_asw_3v3
x39[4] VGND VDPWR VAPWR cfgb_pfetb_d[4] xpt_pfetb_d bus_B[4] tt_asw_3v3
x39[3] VGND VDPWR VAPWR cfgb_pfetb_d[3] xpt_pfetb_d bus_B[3] tt_asw_3v3
x39[2] VGND VDPWR VAPWR cfgb_pfetb_d[2] xpt_pfetb_d bus_B[2] tt_asw_3v3
x39[1] VGND VDPWR VAPWR cfgb_pfetb_d[1] xpt_pfetb_d bus_B[1] tt_asw_3v3
x40[6] VGND VDPWR VAPWR cfgb_pfetb_g[6] xpt_pfetb_g bus_B[6] tt_asw_3v3
x40[5] VGND VDPWR VAPWR cfgb_pfetb_g[5] xpt_pfetb_g bus_B[5] tt_asw_3v3
x40[4] VGND VDPWR VAPWR cfgb_pfetb_g[4] xpt_pfetb_g bus_B[4] tt_asw_3v3
x40[3] VGND VDPWR VAPWR cfgb_pfetb_g[3] xpt_pfetb_g bus_B[3] tt_asw_3v3
x40[2] VGND VDPWR VAPWR cfgb_pfetb_g[2] xpt_pfetb_g bus_B[2] tt_asw_3v3
x40[1] VGND VDPWR VAPWR cfgb_pfetb_g[1] xpt_pfetb_g bus_B[1] tt_asw_3v3
x41[6] VGND VDPWR VAPWR cfgb_pfetb_s[6] xpt_pfetb_s bus_B[6] tt_asw_3v3
x41[5] VGND VDPWR VAPWR cfgb_pfetb_s[5] xpt_pfetb_s bus_B[5] tt_asw_3v3
x41[4] VGND VDPWR VAPWR cfgb_pfetb_s[4] xpt_pfetb_s bus_B[4] tt_asw_3v3
x41[3] VGND VDPWR VAPWR cfgb_pfetb_s[3] xpt_pfetb_s bus_B[3] tt_asw_3v3
x41[2] VGND VDPWR VAPWR cfgb_pfetb_s[2] xpt_pfetb_s bus_B[2] tt_asw_3v3
x41[1] VGND VDPWR VAPWR cfgb_pfetb_s[1] xpt_pfetb_s bus_B[1] tt_asw_3v3
x42[6] VGND VDPWR VAPWR cfg_bus_short[6] bus_B[6] bus_A[6] tt_asw_3v3
x42[5] VGND VDPWR VAPWR cfg_bus_short[5] bus_B[5] bus_A[5] tt_asw_3v3
x42[4] VGND VDPWR VAPWR cfg_bus_short[4] bus_B[4] bus_A[4] tt_asw_3v3
x42[3] VGND VDPWR VAPWR cfg_bus_short[3] bus_B[3] bus_A[3] tt_asw_3v3
x42[2] VGND VDPWR VAPWR cfg_bus_short[2] bus_B[2] bus_A[2] tt_asw_3v3
x42[1] VGND VDPWR VAPWR cfg_bus_short[1] bus_B[1] bus_A[1] tt_asw_3v3
x1 VAPWR VDPWR xpt_otan_inp xpt_otan_outp xpt_otan_inm ctrl_otan_tail[1] ctrl_otan_tail[0] ctrl_otan_mode[1] ctrl_otan_mode[0]
+ ibias VGND xpt_otan_outm ota_n
x3 VAPWR VDPWR ibias_p xpt_mirp_a xpt_mirp_b ctrl_mirp_a[1] ctrl_mirp_a[0] ctrl_mirp_b[1] ctrl_mirp_b[0] VGND mirror_p
x4 VAPWR VDPWR xpt_dpn_outp xpt_dpn_outm xpt_dpn_inp xpt_dpn_inm ctrl_dpn_tail[1] ctrl_dpn_tail[0] ctrl_dpn_source ibias VGND
+ diff_n
x5 VAPWR VDPWR xpt_dpp_outp xpt_dpp_outm xpt_dpp_inp xpt_dpp_inm ctrl_dpp_tail[1] ctrl_dpp_tail[0] ctrl_dpp_source ibias_p VGND
+ diff_p
x6 VAPWR VDPWR xpt_nfeta_d xpt_nfeta_g xpt_nfeta_s ctrl_nfeta_source ctrl_nfeta_width[1] ctrl_nfeta_width[0] VGND nmos_prog
x7 VAPWR VDPWR xpt_nfetb_d xpt_nfetb_g xpt_nfetb_s ctrl_nfetb_source ctrl_nfetb_width[1] ctrl_nfetb_width[0] VGND nmos_prog
x8 VAPWR VDPWR xpt_pfeta_s xpt_pfeta_g xpt_pfeta_d ctrl_pfeta_source ctrl_pfeta_width[1] ctrl_pfeta_width[0] VGND pmos_prog
x9 VAPWR VDPWR xpt_pfetb_s xpt_pfetb_g xpt_pfetb_d ctrl_pfetb_source ctrl_pfetb_width[1] ctrl_pfetb_width[0] VGND pmos_prog
x1[6] VGND VDPWR VAPWR cfgb_otan_outm[6] xpt_otan_outm bus_B[6] tt_asw_3v3
x1[5] VGND VDPWR VAPWR cfgb_otan_outm[5] xpt_otan_outm bus_B[5] tt_asw_3v3
x1[4] VGND VDPWR VAPWR cfgb_otan_outm[4] xpt_otan_outm bus_B[4] tt_asw_3v3
x1[3] VGND VDPWR VAPWR cfgb_otan_outm[3] xpt_otan_outm bus_B[3] tt_asw_3v3
x1[2] VGND VDPWR VAPWR cfgb_otan_outm[2] xpt_otan_outm bus_B[2] tt_asw_3v3
x1[1] VGND VDPWR VAPWR cfgb_otan_outm[1] xpt_otan_outm bus_B[1] tt_asw_3v3
x2[6] VGND VDPWR VAPWR cfg_bus_pwr[6] bus_B[6] VAPWR tt_asw_3v3
x2[5] VGND VDPWR VAPWR cfg_bus_pwr[5] bus_A[4] VAPWR tt_asw_3v3
x2[4] VGND VDPWR VAPWR cfg_bus_pwr[4] bus_B[1] VAPWR tt_asw_3v3
x2[3] VGND VDPWR VAPWR cfg_bus_pwr[3] bus_A[6] VGND tt_asw_3v3
x2[2] VGND VDPWR VAPWR cfg_bus_pwr[2] bus_B[5] VGND tt_asw_3v3
x2[1] VGND VDPWR VAPWR cfg_bus_pwr[1] bus_A[2] VGND tt_asw_3v3
.ends

* expanding   symbol:  mirror_n.sym # of pins=9
** sym_path: /home/tnt/projects/asic/tinytapeout/mosbius/xschem/mirror_n.sym
** sch_path: /home/tnt/projects/asic/tinytapeout/mosbius/xschem/mirror_n.sch
.subckt mirror_n VAPWR VDPWR ibias iout_fixed iout_1 iout_2 ictrl_1[1] ictrl_1[0] ictrl_2[1] ictrl_2[0] GND
*.PININFO ibias:B iout_fixed:B iout_1:B ictrl_1[1:0]:I ictrl_2[1:0]:I iout_2:B VAPWR:B VDPWR:B GND:B
XM1 ibias ibias GND GND sky130_fd_pr__nfet_g5v0d10v5 L=1 W=10 nf=2 ad='int((nf+1)/2) * W/nf * 0.29' as='int((nf+2)/2) * W/nf * 0.29'
+ pd='2*int((nf+1)/2) * (W/nf + 0.29)' ps='2*int((nf+2)/2) * (W/nf + 0.29)' nrd='0.29 / W' nrs='0.29 / W' sa=0 sb=0 sd=0 mult=1 m=1
XM2 iout_fixed ibias GND GND sky130_fd_pr__nfet_g5v0d10v5 L=1 W=10 nf=2 ad='int((nf+1)/2) * W/nf * 0.29' as='int((nf+2)/2) * W/nf * 0.29'
+ pd='2*int((nf+1)/2) * (W/nf + 0.29)' ps='2*int((nf+2)/2) * (W/nf + 0.29)' nrd='0.29 / W' nrs='0.29 / W' sa=0 sb=0 sd=0 mult=1 m=1
XM6 i1_1x ibias GND GND sky130_fd_pr__nfet_g5v0d10v5 L=1 W=10 nf=2 ad='int((nf+1)/2) * W/nf * 0.29' as='int((nf+2)/2) * W/nf * 0.29'
+ pd='2*int((nf+1)/2) * (W/nf + 0.29)' ps='2*int((nf+2)/2) * (W/nf + 0.29)' nrd='0.29 / W' nrs='0.29 / W' sa=0 sb=0 sd=0 mult=1 m=1
XM8 iout_1 ibias GND GND sky130_fd_pr__nfet_g5v0d10v5 L=1 W=10 nf=2 ad='int((nf+1)/2) * W/nf * 0.29' as='int((nf+2)/2) * W/nf * 0.29'
+ pd='2*int((nf+1)/2) * (W/nf + 0.29)' ps='2*int((nf+2)/2) * (W/nf + 0.29)' nrd='0.29 / W' nrs='0.29 / W' sa=0 sb=0 sd=0 mult=1 m=1
XM10 i1_2x ibias GND GND sky130_fd_pr__nfet_g5v0d10v5 L=1 W=20 nf=4 ad='int((nf+1)/2) * W/nf * 0.29' as='int((nf+2)/2) * W/nf * 0.29'
+ pd='2*int((nf+1)/2) * (W/nf + 0.29)' ps='2*int((nf+2)/2) * (W/nf + 0.29)' nrd='0.29 / W' nrs='0.29 / W' sa=0 sb=0 sd=0 mult=1 m=1
x4 GND VDPWR VAPWR ictrl_1[0] i1_1x iout_1 tt_asw_3v3
x5 GND VDPWR VAPWR ictrl_1[1] i1_2x iout_1 tt_asw_3v3
XM14 i2_1x ibias GND GND sky130_fd_pr__nfet_g5v0d10v5 L=1 W=10 nf=2 ad='int((nf+1)/2) * W/nf * 0.29' as='int((nf+2)/2) * W/nf * 0.29'
+ pd='2*int((nf+1)/2) * (W/nf + 0.29)' ps='2*int((nf+2)/2) * (W/nf + 0.29)' nrd='0.29 / W' nrs='0.29 / W' sa=0 sb=0 sd=0 mult=1 m=1
XM16 iout_2 ibias GND GND sky130_fd_pr__nfet_g5v0d10v5 L=1 W=10 nf=2 ad='int((nf+1)/2) * W/nf * 0.29' as='int((nf+2)/2) * W/nf * 0.29'
+ pd='2*int((nf+1)/2) * (W/nf + 0.29)' ps='2*int((nf+2)/2) * (W/nf + 0.29)' nrd='0.29 / W' nrs='0.29 / W' sa=0 sb=0 sd=0 mult=1 m=1
XM18 i2_2x ibias GND GND sky130_fd_pr__nfet_g5v0d10v5 L=1 W=20 nf=4 ad='int((nf+1)/2) * W/nf * 0.29' as='int((nf+2)/2) * W/nf * 0.29'
+ pd='2*int((nf+1)/2) * (W/nf + 0.29)' ps='2*int((nf+2)/2) * (W/nf + 0.29)' nrd='0.29 / W' nrs='0.29 / W' sa=0 sb=0 sd=0 mult=1 m=1
x1 GND VDPWR VAPWR ictrl_2[0] i2_1x iout_2 tt_asw_3v3
x2 GND VDPWR VAPWR ictrl_2[1] i2_2x iout_2 tt_asw_3v3
.ends


* expanding   symbol:  tt_asw_3v3.sym # of pins=6
** sym_path: /home/tnt/projects/asic/tinytapeout/mosbius/xschem/tt_asw_3v3.sym
** sch_path: /home/tnt/projects/asic/tinytapeout/mosbius/xschem/tt_asw_3v3.sch
.subckt tt_asw_3v3 VGND VDPWR VAPWR ctrl mod bus
*.PININFO mod:B bus:B ctrl:I VGND:B VDPWR:B VAPWR:B
XM1 tgon_n net2 VAPWR VAPWR sky130_fd_pr__pfet_g5v0d10v5 L=0.5 W=0.84 nf=1 ad='int((nf+1)/2) * W/nf * 0.29' as='int((nf+2)/2) * W/nf * 0.29'
+ pd='2*int((nf+1)/2) * (W/nf + 0.29)' ps='2*int((nf+2)/2) * (W/nf + 0.29)' nrd='0.29 / W' nrs='0.29 / W' sa=0 sb=0 sd=0 mult=1 m=1
XM2 tgon_n net2 VGND VGND sky130_fd_pr__nfet_g5v0d10v5 L=0.5 W=0.42 nf=1 ad='int((nf+1)/2) * W/nf * 0.29' as='int((nf+2)/2) * W/nf * 0.29'
+ pd='2*int((nf+1)/2) * (W/nf + 0.29)' ps='2*int((nf+2)/2) * (W/nf + 0.29)' nrd='0.29 / W' nrs='0.29 / W' sa=0 sb=0 sd=0 mult=1 m=1
XM3 tgon net1 VAPWR VAPWR sky130_fd_pr__pfet_g5v0d10v5 L=0.5 W=0.84 nf=1 ad='int((nf+1)/2) * W/nf * 0.29' as='int((nf+2)/2) * W/nf * 0.29'
+ pd='2*int((nf+1)/2) * (W/nf + 0.29)' ps='2*int((nf+2)/2) * (W/nf + 0.29)' nrd='0.29 / W' nrs='0.29 / W' sa=0 sb=0 sd=0 mult=1 m=1
XM4 tgon net1 VGND VGND sky130_fd_pr__nfet_g5v0d10v5 L=0.5 W=0.42 nf=1 ad='int((nf+1)/2) * W/nf * 0.29' as='int((nf+2)/2) * W/nf * 0.29'
+ pd='2*int((nf+1)/2) * (W/nf + 0.29)' ps='2*int((nf+2)/2) * (W/nf + 0.29)' nrd='0.29 / W' nrs='0.29 / W' sa=0 sb=0 sd=0 mult=1 m=1
XM5 bus tgon_n mod VAPWR sky130_fd_pr__pfet_g5v0d10v5 L=0.5 W=180 nf=18 ad='int((nf+1)/2) * W/nf * 0.29' as='int((nf+2)/2) * W/nf * 0.29'
+ pd='2*int((nf+1)/2) * (W/nf + 0.29)' ps='2*int((nf+2)/2) * (W/nf + 0.29)' nrd='0.29 / W' nrs='0.29 / W' sa=0 sb=0 sd=0 mult=1 m=1
XM6 bus tgon mod VGND sky130_fd_pr__nfet_g5v0d10v5 L=0.5 W=60 nf=12 ad='int((nf+1)/2) * W/nf * 0.29' as='int((nf+2)/2) * W/nf * 0.29'
+ pd='2*int((nf+1)/2) * (W/nf + 0.29)' ps='2*int((nf+2)/2) * (W/nf + 0.29)' nrd='0.29 / W' nrs='0.29 / W' sa=0 sb=0 sd=0 mult=1 m=1
XM7 ctrl_n ctrl VGND VGND sky130_fd_pr__nfet_01v8 L=0.15 W=0.42 nf=1 ad='int((nf+1)/2) * W/nf * 0.29' as='int((nf+2)/2) * W/nf * 0.29'
+ pd='2*int((nf+1)/2) * (W/nf + 0.29)' ps='2*int((nf+2)/2) * (W/nf + 0.29)' nrd='0.29 / W' nrs='0.29 / W' sa=0 sb=0 sd=0 mult=1 m=1
XM8 ctrl_n ctrl VDPWR VDPWR sky130_fd_pr__pfet_01v8_hvt L=0.15 W=1 nf=1 ad='int((nf+1)/2) * W/nf * 0.29' as='int((nf+2)/2) * W/nf * 0.29'
+ pd='2*int((nf+1)/2) * (W/nf + 0.29)' ps='2*int((nf+2)/2) * (W/nf + 0.29)' nrd='0.29 / W' nrs='0.29 / W' sa=0 sb=0 sd=0 mult=1 m=1
XM9 net1 ctrl VGND VGND sky130_fd_pr__nfet_g5v0d10v5 L=0.5 W=0.42 nf=1 ad='int((nf+1)/2) * W/nf * 0.29' as='int((nf+2)/2) * W/nf * 0.29'
+ pd='2*int((nf+1)/2) * (W/nf + 0.29)' ps='2*int((nf+2)/2) * (W/nf + 0.29)' nrd='0.29 / W' nrs='0.29 / W' sa=0 sb=0 sd=0 mult=1 m=1
XM10 net2 ctrl_n VGND VGND sky130_fd_pr__nfet_g5v0d10v5 L=0.5 W=0.42 nf=1 ad='int((nf+1)/2) * W/nf * 0.29' as='int((nf+2)/2) * W/nf * 0.29'
+ pd='2*int((nf+1)/2) * (W/nf + 0.29)' ps='2*int((nf+2)/2) * (W/nf + 0.29)' nrd='0.29 / W' nrs='0.29 / W' sa=0 sb=0 sd=0 mult=1 m=1
XM11 net1 net2 net3 VAPWR sky130_fd_pr__pfet_g5v0d10v5 L=0.5 W=0.42 nf=1 ad='int((nf+1)/2) * W/nf * 0.29' as='int((nf+2)/2) * W/nf * 0.29'
+ pd='2*int((nf+1)/2) * (W/nf + 0.29)' ps='2*int((nf+2)/2) * (W/nf + 0.29)' nrd='0.29 / W' nrs='0.29 / W' sa=0 sb=0 sd=0 mult=1 m=1
XM12 net2 net1 net4 VAPWR sky130_fd_pr__pfet_g5v0d10v5 L=0.5 W=0.42 nf=1 ad='int((nf+1)/2) * W/nf * 0.29' as='int((nf+2)/2) * W/nf * 0.29'
+ pd='2*int((nf+1)/2) * (W/nf + 0.29)' ps='2*int((nf+2)/2) * (W/nf + 0.29)' nrd='0.29 / W' nrs='0.29 / W' sa=0 sb=0 sd=0 mult=1 m=1
XM13 net3 net1 VAPWR VAPWR sky130_fd_pr__pfet_g5v0d10v5 L=0.5 W=0.42 nf=1 ad='int((nf+1)/2) * W/nf * 0.29' as='int((nf+2)/2) * W/nf * 0.29'
+ pd='2*int((nf+1)/2) * (W/nf + 0.29)' ps='2*int((nf+2)/2) * (W/nf + 0.29)' nrd='0.29 / W' nrs='0.29 / W' sa=0 sb=0 sd=0 mult=1 m=1
XM14 net4 net2 VAPWR VAPWR sky130_fd_pr__pfet_g5v0d10v5 L=0.5 W=0.42 nf=1 ad='int((nf+1)/2) * W/nf * 0.29' as='int((nf+2)/2) * W/nf * 0.29'
+ pd='2*int((nf+1)/2) * (W/nf + 0.29)' ps='2*int((nf+2)/2) * (W/nf + 0.29)' nrd='0.29 / W' nrs='0.29 / W' sa=0 sb=0 sd=0 mult=1 m=1
.ends


* expanding   symbol:  ota_n.sym # of pins=10
** sym_path: /home/tnt/projects/asic/tinytapeout/mosbius/xschem/ota_n.sym
** sch_path: /home/tnt/projects/asic/tinytapeout/mosbius/xschem/ota_n.sch
.subckt ota_n VAPWR VDPWR inp outp inm ctrl_tail[1] ctrl_tail[0] ctrl_mode[1] ctrl_mode[0] vbias GND outm
*.PININFO vbias:B ctrl_tail[1:0]:I VAPWR:B VDPWR:B GND:B ctrl_mode[1:0]:I inp:I inm:I outp:O outm:O
XM1 outp outp VAPWR VAPWR sky130_fd_pr__pfet_g5v0d10v5 L=1 W=60 nf=8 ad='int((nf+1)/2) * W/nf * 0.29' as='int((nf+2)/2) * W/nf * 0.29'
+ pd='2*int((nf+1)/2) * (W/nf + 0.29)' ps='2*int((nf+2)/2) * (W/nf + 0.29)' nrd='0.29 / W' nrs='0.29 / W' sa=0 sb=0 sd=0 mult=1 m=1
XM2 outm gate VAPWR VAPWR sky130_fd_pr__pfet_g5v0d10v5 L=1 W=60 nf=8 ad='int((nf+1)/2) * W/nf * 0.29' as='int((nf+2)/2) * W/nf * 0.29'
+ pd='2*int((nf+1)/2) * (W/nf + 0.29)' ps='2*int((nf+2)/2) * (W/nf + 0.29)' nrd='0.29 / W' nrs='0.29 / W' sa=0 sb=0 sd=0 mult=1 m=1
x2 GND VDPWR VAPWR ctrl_mode[0] outp gate tt_asw_3v3
x3 GND VDPWR VAPWR ctrl_mode[1] outm gate tt_asw_3v3
XM3 outp inp itail GND sky130_fd_pr__nfet_g5v0d10v5 L=0.5 W=40 nf=8 ad='int((nf+1)/2) * W/nf * 0.29' as='int((nf+2)/2) * W/nf * 0.29'
+ pd='2*int((nf+1)/2) * (W/nf + 0.29)' ps='2*int((nf+2)/2) * (W/nf + 0.29)' nrd='0.29 / W' nrs='0.29 / W' sa=0 sb=0 sd=0 mult=1 m=1
XM4 outm inm itail GND sky130_fd_pr__nfet_g5v0d10v5 L=0.5 W=40 nf=8 ad='int((nf+1)/2) * W/nf * 0.29' as='int((nf+2)/2) * W/nf * 0.29'
+ pd='2*int((nf+1)/2) * (W/nf + 0.29)' ps='2*int((nf+2)/2) * (W/nf + 0.29)' nrd='0.29 / W' nrs='0.29 / W' sa=0 sb=0 sd=0 mult=1 m=1
XM6 itail_1x vbias GND GND sky130_fd_pr__nfet_g5v0d10v5 L=1 W=20 nf=4 ad='int((nf+1)/2) * W/nf * 0.29' as='int((nf+2)/2) * W/nf * 0.29'
+ pd='2*int((nf+1)/2) * (W/nf + 0.29)' ps='2*int((nf+2)/2) * (W/nf + 0.29)' nrd='0.29 / W' nrs='0.29 / W' sa=0 sb=0 sd=0 mult=1 m=1
XM8 itail vbias GND GND sky130_fd_pr__nfet_g5v0d10v5 L=1 W=20 nf=4 ad='int((nf+1)/2) * W/nf * 0.29' as='int((nf+2)/2) * W/nf * 0.29'
+ pd='2*int((nf+1)/2) * (W/nf + 0.29)' ps='2*int((nf+2)/2) * (W/nf + 0.29)' nrd='0.29 / W' nrs='0.29 / W' sa=0 sb=0 sd=0 mult=1 m=1
XM10 itail_2x vbias GND GND sky130_fd_pr__nfet_g5v0d10v5 L=1 W=40 nf=8 ad='int((nf+1)/2) * W/nf * 0.29' as='int((nf+2)/2) * W/nf * 0.29'
+ pd='2*int((nf+1)/2) * (W/nf + 0.29)' ps='2*int((nf+2)/2) * (W/nf + 0.29)' nrd='0.29 / W' nrs='0.29 / W' sa=0 sb=0 sd=0 mult=1 m=1
x4 GND VDPWR VAPWR ctrl_tail[0] itail_1x itail tt_asw_3v3
x5 GND VDPWR VAPWR ctrl_tail[1] itail_2x itail tt_asw_3v3
.ends


* expanding   symbol:  mirror_p.sym # of pins=8
** sym_path: /home/tnt/projects/asic/tinytapeout/mosbius/xschem/mirror_p.sym
** sch_path: /home/tnt/projects/asic/tinytapeout/mosbius/xschem/mirror_p.sch
.subckt mirror_p VAPWR VDPWR ibias iout_1 iout_2 ictrl_1[1] ictrl_1[0] ictrl_2[1] ictrl_2[0] GND
*.PININFO ibias:B iout_1:B ictrl_1[1:0]:I ictrl_2[1:0]:I iout_2:B VAPWR:B VDPWR:B GND:B
x4 GND VDPWR VAPWR ictrl_1[0] i1_1x iout_1 tt_asw_3v3
x5 GND VDPWR VAPWR ictrl_1[1] i1_2x iout_1 tt_asw_3v3
x1 GND VDPWR VAPWR ictrl_2[0] i2_1x iout_2 tt_asw_3v3
x2 GND VDPWR VAPWR ictrl_2[1] i2_2x iout_2 tt_asw_3v3
XM3 iout_1 ibias VAPWR VAPWR sky130_fd_pr__pfet_g5v0d10v5 L=1 W=30 nf=4 ad='int((nf+1)/2) * W/nf * 0.29' as='int((nf+2)/2) * W/nf * 0.29'
+ pd='2*int((nf+1)/2) * (W/nf + 0.29)' ps='2*int((nf+2)/2) * (W/nf + 0.29)' nrd='0.29 / W' nrs='0.29 / W' sa=0 sb=0 sd=0 mult=1 m=1
XM4 ibias ibias VAPWR VAPWR sky130_fd_pr__pfet_g5v0d10v5 L=1 W=30 nf=4 ad='int((nf+1)/2) * W/nf * 0.29' as='int((nf+2)/2) * W/nf * 0.29'
+ pd='2*int((nf+1)/2) * (W/nf + 0.29)' ps='2*int((nf+2)/2) * (W/nf + 0.29)' nrd='0.29 / W' nrs='0.29 / W' sa=0 sb=0 sd=0 mult=1 m=1
XM5 i1_1x ibias VAPWR VAPWR sky130_fd_pr__pfet_g5v0d10v5 L=1 W=30 nf=4 ad='int((nf+1)/2) * W/nf * 0.29' as='int((nf+2)/2) * W/nf * 0.29'
+ pd='2*int((nf+1)/2) * (W/nf + 0.29)' ps='2*int((nf+2)/2) * (W/nf + 0.29)' nrd='0.29 / W' nrs='0.29 / W' sa=0 sb=0 sd=0 mult=1 m=1
XM7 i1_2x ibias VAPWR VAPWR sky130_fd_pr__pfet_g5v0d10v5 L=1 W=60 nf=8 ad='int((nf+1)/2) * W/nf * 0.29' as='int((nf+2)/2) * W/nf * 0.29'
+ pd='2*int((nf+1)/2) * (W/nf + 0.29)' ps='2*int((nf+2)/2) * (W/nf + 0.29)' nrd='0.29 / W' nrs='0.29 / W' sa=0 sb=0 sd=0 mult=1 m=1
XM1 iout_2 ibias VAPWR VAPWR sky130_fd_pr__pfet_g5v0d10v5 L=1 W=30 nf=4 ad='int((nf+1)/2) * W/nf * 0.29' as='int((nf+2)/2) * W/nf * 0.29'
+ pd='2*int((nf+1)/2) * (W/nf + 0.29)' ps='2*int((nf+2)/2) * (W/nf + 0.29)' nrd='0.29 / W' nrs='0.29 / W' sa=0 sb=0 sd=0 mult=1 m=1
XM2 i2_1x ibias VAPWR VAPWR sky130_fd_pr__pfet_g5v0d10v5 L=1 W=30 nf=4 ad='int((nf+1)/2) * W/nf * 0.29' as='int((nf+2)/2) * W/nf * 0.29'
+ pd='2*int((nf+1)/2) * (W/nf + 0.29)' ps='2*int((nf+2)/2) * (W/nf + 0.29)' nrd='0.29 / W' nrs='0.29 / W' sa=0 sb=0 sd=0 mult=1 m=1
XM6 i2_2x ibias VAPWR VAPWR sky130_fd_pr__pfet_g5v0d10v5 L=1 W=60 nf=8 ad='int((nf+1)/2) * W/nf * 0.29' as='int((nf+2)/2) * W/nf * 0.29'
+ pd='2*int((nf+1)/2) * (W/nf + 0.29)' ps='2*int((nf+2)/2) * (W/nf + 0.29)' nrd='0.29 / W' nrs='0.29 / W' sa=0 sb=0 sd=0 mult=1 m=1
.ends


* expanding   symbol:  diff_n.sym # of pins=10
** sym_path: /home/tnt/projects/asic/tinytapeout/mosbius/xschem/diff_n.sym
** sch_path: /home/tnt/projects/asic/tinytapeout/mosbius/xschem/diff_n.sch
.subckt diff_n VAPWR VDPWR outp outm inp inm ctrl_tail[1] ctrl_tail[0] ctrl_source vbias GND
*.PININFO vbias:B ctrl_tail[1:0]:I VAPWR:B VDPWR:B GND:B ctrl_source:I inp:I inm:I outp:B outm:B
XM1 outp inp itail GND sky130_fd_pr__nfet_g5v0d10v5 L=0.5 W=40 nf=8 ad='int((nf+1)/2) * W/nf * 0.29' as='int((nf+2)/2) * W/nf * 0.29'
+ pd='2*int((nf+1)/2) * (W/nf + 0.29)' ps='2*int((nf+2)/2) * (W/nf + 0.29)' nrd='0.29 / W' nrs='0.29 / W' sa=0 sb=0 sd=0 mult=1 m=1
XM2 outm inm itail GND sky130_fd_pr__nfet_g5v0d10v5 L=0.5 W=40 nf=8 ad='int((nf+1)/2) * W/nf * 0.29' as='int((nf+2)/2) * W/nf * 0.29'